<?xml version="1.0" encoding="UTF-8"?>

<!-- generated on 2026-03-22T00:19:25.837424+05:30 by Eclipse SUMO netconvert 1.26.0
<netconvertConfiguration xmlns:xsi="http://www.w3.org/2001/XMLSchema-instance" xsi:noNamespaceSchemaLocation="http://sumo.dlr.de/xsd/netconvertConfiguration.xsd">

    <input>
        <node-files value="sumo_simulation\traffic_network.nod.xml"/>
        <edge-files value="sumo_simulation\traffic_network.edg.xml"/>
        <type-files value="sumo_simulation\traffic_network.tll.xml"/>
    </input>

    <output>
        <output-file value="sumo_simulation\traffic_network.net.xml"/>
    </output>

    <processing>
        <geometry.remove value="true"/>
        <geometry.remove.keep-edges.explicit value="true"/>
    </processing>

</netconvertConfiguration>
-->

<net version="1.20" junctionCornerDetail="5" limitTurnSpeed="5.50" xmlns:xsi="http://www.w3.org/2001/XMLSchema-instance" xsi:noNamespaceSchemaLocation="http://sumo.dlr.de/xsd/net_file.xsd">

    <location netOffset="-200.00,-200.00" convBoundary="0.00,0.00,400.00,600.00" origBoundary="200.00,200.00,600.00,800.00" projParameter="!"/>

    <edge id=":n0_0" function="internal">
        <lane id=":n0_0_0" index="0" speed="13.89" length="68.14" shape="-4.80,43.44 -2.56,22.33 4.18,7.26 15.40,-1.79 31.11,-4.80"/>
    </edge>
    <edge id=":n0_1" function="internal">
        <lane id=":n0_1_0" index="0" speed="13.89" length="68.14" shape="-4.80,43.44 -2.56,22.33 4.18,7.26 15.40,-1.79 31.11,-4.80"/>
    </edge>
    <edge id=":n0_2" function="internal">
        <lane id=":n0_2_0" index="0" speed="13.01" length="1.74" shape="-1.60,43.44 -0.67,41.97"/>
    </edge>
    <edge id=":n0_3" function="internal">
        <lane id=":n0_3_0" index="0" speed="10.72" length="1.70" shape="-1.60,43.44 -0.67,42.02"/>
    </edge>
    <edge id=":n0_4" function="internal">
        <lane id=":n0_4_0" index="0" speed="8.10" length="1.81" shape="-1.60,43.44 -0.67,41.88"/>
    </edge>
    <edge id=":n0_5" function="internal">
        <lane id=":n0_5_0" index="0" speed="6.89" length="1.69" shape="-1.60,43.44 -0.67,42.03"/>
    </edge>
    <edge id=":n0_6" function="internal">
        <lane id=":n0_6_0" index="0" speed="3.24" length="1.68" shape="-1.60,43.44 0.08,43.44"/>
    </edge>
    <edge id=":n0_7" function="internal">
        <lane id=":n0_7_0" index="0" speed="3.24" length="1.68" shape="-1.60,43.44 0.08,43.44"/>
    </edge>
    <edge id=":n0_8" function="internal">
        <lane id=":n0_8_0" index="0" speed="3.65" length="1.44" shape="-1.60,43.44 -0.80,42.24"/>
    </edge>
    <edge id=":n0_87" function="internal">
        <lane id=":n0_87_0" index="0" speed="13.01" length="51.38" shape="-0.67,41.97 3.94,34.71 16.72,24.46 30.99,16.63 41.00,15.13"/>
    </edge>
    <edge id=":n0_88" function="internal">
        <lane id=":n0_88_0" index="0" speed="10.72" length="40.41" shape="-0.67,42.02 3.10,36.29 13.90,29.69 25.88,25.94 34.11,27.32"/>
    </edge>
    <edge id=":n0_89" function="internal">
        <lane id=":n0_89_0" index="0" speed="8.10" length="25.05" shape="-0.67,41.88 1.42,38.39 8.32,35.28 15.86,34.90 20.81,38.04"/>
    </edge>
    <edge id=":n0_90" function="internal">
        <lane id=":n0_90_0" index="0" speed="6.89" length="18.33" shape="-0.67,42.03 0.78,39.85 6.15,37.89 11.85,38.02 15.24,40.66"/>
    </edge>
    <edge id=":n0_91" function="internal">
        <lane id=":n0_91_0" index="0" speed="3.24" length="1.52" shape="0.08,43.44 1.60,43.44"/>
    </edge>
    <edge id=":n0_92" function="internal">
        <lane id=":n0_92_0" index="0" speed="3.24" length="1.52" shape="0.08,43.44 1.60,43.44"/>
    </edge>
    <edge id=":n0_93" function="internal">
        <lane id=":n0_93_0" index="0" speed="3.65" length="3.23" shape="-0.80,42.24 0.00,41.84 0.80,42.24 1.60,43.44"/>
    </edge>
    <edge id=":n0_9" function="internal">
        <lane id=":n0_9_0" index="0" speed="13.89" length="68.14" shape="-4.80,43.44 -2.56,22.33 4.18,7.26 15.40,-1.79 31.11,-4.80"/>
    </edge>
    <edge id=":n0_10" function="internal">
        <lane id=":n0_10_0" index="0" speed="13.89" length="68.14" shape="-4.80,43.44 -2.56,22.33 4.18,7.26 15.40,-1.79 31.11,-4.80"/>
    </edge>
    <edge id=":n0_11" function="internal">
        <lane id=":n0_11_0" index="0" speed="13.01" length="53.12" shape="-1.60,43.44 3.94,34.71 16.72,24.46 30.99,16.63 41.00,15.13"/>
    </edge>
    <edge id=":n0_12" function="internal">
        <lane id=":n0_12_0" index="0" speed="10.38" length="39.32" shape="-1.60,43.44 2.74,36.64 12.77,30.82 23.97,27.85 31.85,29.58"/>
    </edge>
    <edge id=":n0_13" function="internal">
        <lane id=":n0_13_0" index="0" speed="8.10" length="1.84" shape="-1.60,43.44 -0.66,41.86"/>
    </edge>
    <edge id=":n0_14" function="internal">
        <lane id=":n0_14_0" index="0" speed="6.89" length="1.71" shape="-1.60,43.44 -0.66,42.01"/>
    </edge>
    <edge id=":n0_15" function="internal">
        <lane id=":n0_15_0" index="0" speed="3.24" length="1.69" shape="-1.60,43.44 0.09,43.44"/>
    </edge>
    <edge id=":n0_16" function="internal">
        <lane id=":n0_16_0" index="0" speed="4.08" length="6.40" shape="-1.60,43.44 4.80,43.44"/>
    </edge>
    <edge id=":n0_17" function="internal">
        <lane id=":n0_17_0" index="0" speed="3.65" length="1.44" shape="-1.60,43.44 -0.80,42.24"/>
    </edge>
    <edge id=":n0_94" function="internal">
        <lane id=":n0_94_0" index="0" speed="8.10" length="25.02" shape="-0.66,41.86 1.42,38.39 8.32,35.28 15.86,34.90 20.81,38.04"/>
    </edge>
    <edge id=":n0_95" function="internal">
        <lane id=":n0_95_0" index="0" speed="6.89" length="18.32" shape="-0.66,42.01 0.78,39.85 6.15,37.89 11.85,38.02 15.24,40.66"/>
    </edge>
    <edge id=":n0_96" function="internal">
        <lane id=":n0_96_0" index="0" speed="3.24" length="1.51" shape="0.09,43.44 1.60,43.44"/>
    </edge>
    <edge id=":n0_97" function="internal">
        <lane id=":n0_97_0" index="0" speed="3.65" length="3.23" shape="-0.80,42.24 0.00,41.84 0.80,42.24 1.60,43.44"/>
    </edge>
    <edge id=":n0_18" function="internal">
        <lane id=":n0_18_0" index="0" speed="13.89" length="68.14" shape="-4.80,43.44 -2.56,22.33 4.18,7.26 15.40,-1.79 31.11,-4.80"/>
    </edge>
    <edge id=":n0_19" function="internal">
        <lane id=":n0_19_0" index="0" speed="13.89" length="68.14" shape="-4.80,43.44 -2.56,22.33 4.18,7.26 15.40,-1.79 31.11,-4.80"/>
    </edge>
    <edge id=":n0_20" function="internal">
        <lane id=":n0_20_0" index="0" speed="12.69" length="50.46" shape="-1.60,43.44 3.71,35.15 16.00,25.89 29.78,19.04 39.57,18.00"/>
    </edge>
    <edge id=":n0_21" function="internal">
        <lane id=":n0_21_0" index="0" speed="10.38" length="1.80" shape="-1.60,43.44 -0.63,41.92"/>
    </edge>
    <edge id=":n0_22" function="internal">
        <lane id=":n0_22_0" index="0" speed="8.10" length="1.89" shape="-1.60,43.44 -0.63,41.81"/>
    </edge>
    <edge id=":n0_23" function="internal">
        <lane id=":n0_23_0" index="0" speed="6.89" length="1.75" shape="-1.60,43.44 -0.63,41.98"/>
    </edge>
    <edge id=":n0_24" function="internal">
        <lane id=":n0_24_0" index="0" speed="4.08" length="6.40" shape="-1.60,43.44 4.80,43.44"/>
    </edge>
    <edge id=":n0_25" function="internal">
        <lane id=":n0_25_0" index="0" speed="4.08" length="6.40" shape="-1.60,43.44 4.80,43.44"/>
    </edge>
    <edge id=":n0_26" function="internal">
        <lane id=":n0_26_0" index="0" speed="3.65" length="1.44" shape="-1.60,43.44 -0.80,42.24"/>
    </edge>
    <edge id=":n0_98" function="internal">
        <lane id=":n0_98_0" index="0" speed="10.38" length="37.52" shape="-0.63,41.92 2.74,36.64 12.77,30.82 23.97,27.85 31.85,29.58"/>
    </edge>
    <edge id=":n0_99" function="internal">
        <lane id=":n0_99_0" index="0" speed="8.10" length="24.97" shape="-0.63,41.81 1.42,38.39 8.32,35.28 15.86,34.90 20.81,38.04"/>
    </edge>
    <edge id=":n0_100" function="internal">
        <lane id=":n0_100_0" index="0" speed="6.89" length="18.28" shape="-0.63,41.98 0.78,39.85 6.15,37.89 11.85,38.02 15.24,40.66"/>
    </edge>
    <edge id=":n0_101" function="internal">
        <lane id=":n0_101_0" index="0" speed="3.65" length="3.23" shape="-0.80,42.24 0.00,41.84 0.80,42.24 1.60,43.44"/>
    </edge>
    <edge id=":n0_27" function="internal">
        <lane id=":n0_27_0" index="0" speed="6.05" length="14.96" shape="9.41,43.41 7.39,38.23 5.95,36.50 5.09,38.24 4.80,43.44"/>
    </edge>
    <edge id=":n0_28" function="internal">
        <lane id=":n0_28_0" index="0" speed="6.05" length="14.96" shape="9.41,43.41 7.39,38.23 5.95,36.50 5.09,38.24 4.80,43.44"/>
    </edge>
    <edge id=":n0_29" function="internal">
        <lane id=":n0_29_0" index="0" speed="6.05" length="14.96" shape="9.41,43.41 7.39,38.23 5.95,36.50 5.09,38.24 4.80,43.44"/>
    </edge>
    <edge id=":n0_30" function="internal">
        <lane id=":n0_30_0" index="0" speed="13.73" length="54.58" shape="9.41,43.41 10.37,32.32 15.87,16.14 23.58,1.55 31.11,-4.80"/>
        <lane id=":n0_30_1" index="1" speed="13.07" length="49.37" shape="12.33,42.04 12.83,31.66 17.33,17.06 24.03,4.03 31.11,-1.60"/>
    </edge>
    <edge id=":n0_32" function="internal">
        <lane id=":n0_32_0" index="0" speed="13.89" length="55.64" shape="12.33,42.04 8.03,24.66 8.69,10.83 15.87,1.70 27.87,-0.90"/>
    </edge>
    <edge id=":n0_33" function="internal">
        <lane id=":n0_33_0" index="0" speed="11.42" length="4.53" shape="12.33,42.04 11.99,37.52"/>
    </edge>
    <edge id=":n0_34" function="internal">
        <lane id=":n0_34_0" index="0" speed="8.75" length="2.98" shape="12.33,42.04 12.35,39.06"/>
    </edge>
    <edge id=":n0_35" function="internal">
        <lane id=":n0_35_0" index="0" speed="5.55" length="2.26" shape="12.33,42.04 12.53,39.79"/>
    </edge>
    <edge id=":n0_36" function="internal">
        <lane id=":n0_36_0" index="0" speed="3.66" length="1.45" shape="12.33,42.04 12.54,40.60"/>
    </edge>
    <edge id=":n0_102" function="internal">
        <lane id=":n0_102_0" index="0" speed="13.89" length="3.32" shape="27.87,-0.90 31.11,-1.60"/>
    </edge>
    <edge id=":n0_103" function="internal">
        <lane id=":n0_103_0" index="0" speed="11.42" length="43.46" shape="11.99,37.52 11.35,28.93 16.78,19.45 26.80,15.25 39.57,18.00"/>
    </edge>
    <edge id=":n0_104" function="internal">
        <lane id=":n0_104_0" index="0" speed="8.75" length="28.69" shape="12.35,39.06 12.38,33.66 17.15,27.82 24.39,25.98 31.85,29.58"/>
    </edge>
    <edge id=":n0_105" function="internal">
        <lane id=":n0_105_0" index="0" speed="5.55" length="10.91" shape="12.53,39.79 12.63,38.67 15.08,36.44 18.27,36.00 20.81,38.04"/>
    </edge>
    <edge id=":n0_106" function="internal">
        <lane id=":n0_106_0" index="0" speed="3.66" length="3.25" shape="12.54,40.60 13.10,39.89 14.00,39.91 15.24,40.66"/>
    </edge>
    <edge id=":n0_37" function="internal">
        <lane id=":n0_37_0" index="0" speed="7.35" length="24.71" shape="15.02,40.77 19.30,48.85 21.25,51.29 20.87,48.11 18.16,39.29"/>
    </edge>
    <edge id=":n0_38" function="internal">
        <lane id=":n0_38_0" index="0" speed="7.87" length="25.27" shape="15.02,40.77 10.55,33.27 7.35,31.22 5.44,34.61 4.80,43.44"/>
    </edge>
    <edge id=":n0_39" function="internal">
        <lane id=":n0_39_0" index="0" speed="7.87" length="25.27" shape="15.02,40.77 10.55,33.27 7.35,31.22 5.44,34.61 4.80,43.44"/>
    </edge>
    <edge id=":n0_40" function="internal">
        <lane id=":n0_40_0" index="0" speed="7.87" length="25.27" shape="15.02,40.77 10.55,33.27 7.35,31.22 5.44,34.61 4.80,43.44"/>
    </edge>
    <edge id=":n0_41" function="internal">
        <lane id=":n0_41_0" index="0" speed="12.67" length="50.36" shape="15.02,40.77 14.61,30.29 18.24,15.00 24.29,1.20 31.11,-4.80"/>
        <lane id=":n0_41_1" index="1" speed="12.04" length="45.29" shape="17.91,39.40 17.05,29.64 19.69,15.92 24.74,3.69 31.11,-1.60"/>
    </edge>
    <edge id=":n0_43" function="internal">
        <lane id=":n0_43_0" index="0" speed="12.04" length="45.29" shape="17.91,39.40 17.05,29.64 19.69,15.92 24.74,3.69 31.11,-1.60"/>
    </edge>
    <edge id=":n0_44" function="internal">
        <lane id=":n0_44_0" index="0" speed="10.24" length="40.88" shape="17.91,39.40 15.98,28.61 20.23,20.19 28.74,16.02 39.57,18.00"/>
    </edge>
    <edge id=":n0_45" function="internal">
        <lane id=":n0_45_0" index="0" speed="7.43" length="23.62" shape="17.91,39.40 17.36,33.35 20.78,28.81 26.25,27.10 31.85,29.58"/>
    </edge>
    <edge id=":n0_46" function="internal">
        <lane id=":n0_46_0" index="0" speed="3.65" length="2.34" shape="17.91,39.40 18.12,37.98 18.68,37.27"/>
    </edge>
    <edge id=":n0_107" function="internal">
        <lane id=":n0_107_0" index="0" speed="3.65" length="2.34" shape="18.68,37.27 19.57,37.29 20.81,38.04"/>
    </edge>
    <edge id=":n0_47" function="internal">
        <lane id=":n0_47_0" index="0" speed="5.97" length="14.56" shape="27.32,34.11 23.42,30.59 21.52,29.85 21.61,31.88 23.70,36.67"/>
    </edge>
    <edge id=":n0_48" function="internal">
        <lane id=":n0_48_0" index="0" speed="7.86" length="25.18" shape="27.32,34.11 20.62,28.31 16.86,27.24 16.04,30.90 18.16,39.29"/>
    </edge>
    <edge id=":n0_49" function="internal">
        <lane id=":n0_49_0" index="0" speed="10.39" length="39.45" shape="27.32,34.11 17.47,26.25 10.43,25.18 6.21,30.91 4.80,43.44"/>
    </edge>
    <edge id=":n0_50" function="internal">
        <lane id=":n0_50_0" index="0" speed="10.39" length="39.45" shape="27.32,34.11 17.47,26.25 10.43,25.18 6.21,30.91 4.80,43.44"/>
        <lane id=":n0_50_1" index="1" speed="11.54" length="49.02" shape="29.58,31.85 17.34,22.08 8.60,20.75 3.35,27.87 1.60,43.44"/>
    </edge>
    <edge id=":n0_52" function="internal">
        <lane id=":n0_52_0" index="0" speed="11.54" length="49.02" shape="29.58,31.85 17.34,22.08 8.60,20.75 3.35,27.87 1.60,43.44"/>
    </edge>
    <edge id=":n0_53" function="internal">
        <lane id=":n0_53_0" index="0" speed="10.03" length="1.72" shape="29.58,31.85 28.86,30.29"/>
    </edge>
    <edge id=":n0_54" function="internal">
        <lane id=":n0_54_0" index="0" speed="10.03" length="1.72" shape="29.58,31.85 28.86,30.29"/>
    </edge>
    <edge id=":n0_55" function="internal">
        <lane id=":n0_55_0" index="0" speed="7.43" length="1.32" shape="29.58,31.85 29.05,30.64"/>
    </edge>
    <edge id=":n0_56" function="internal">
        <lane id=":n0_56_0" index="0" speed="3.65" length="1.21" shape="29.58,31.85 29.35,30.66"/>
    </edge>
    <edge id=":n0_108" function="internal">
        <lane id=":n0_108_0" index="0" speed="10.03" length="34.91" shape="28.86,30.29 25.92,23.97 24.66,12.77 26.24,2.74 31.11,-1.60"/>
    </edge>
    <edge id=":n0_109" function="internal">
        <lane id=":n0_109_0" index="0" speed="10.03" length="34.91" shape="28.86,30.29 25.92,23.97 24.66,12.77 26.24,2.74 31.11,-1.60"/>
    </edge>
    <edge id=":n0_110" function="internal">
        <lane id=":n0_110_0" index="0" speed="7.43" length="22.33" shape="29.05,30.64 27.12,26.26 28.88,20.81 33.49,17.43 39.57,18.00"/>
    </edge>
    <edge id=":n0_111" function="internal">
        <lane id=":n0_111_0" index="0" speed="3.65" length="3.47" shape="29.35,30.66 29.30,30.43 29.58,29.58 30.43,29.30 31.85,29.58"/>
    </edge>
    <edge id=":n0_57" function="internal">
        <lane id=":n0_57_0" index="0" speed="5.98" length="14.58" shape="36.71,23.72 31.90,21.62 29.86,21.52 30.60,23.42 34.11,27.32"/>
    </edge>
    <edge id=":n0_58" function="internal">
        <lane id=":n0_58_0" index="0" speed="9.39" length="34.07" shape="36.71,23.72 26.15,19.66 20.47,20.46 19.65,26.14 23.70,36.67"/>
    </edge>
    <edge id=":n0_59" function="internal">
        <lane id=":n0_59_0" index="0" speed="10.36" length="39.19" shape="36.71,23.72 24.86,19.35 17.82,20.49 15.59,27.14 18.16,39.29"/>
    </edge>
    <edge id=":n0_60" function="internal">
        <lane id=":n0_60_0" index="0" speed="12.60" length="49.72" shape="36.71,23.72 22.75,18.97 12.78,20.67 6.79,28.83 4.80,43.44"/>
        <lane id=":n0_60_1" index="1" speed="13.46" length="56.94" shape="38.14,20.86 22.15,15.42 10.73,17.37 3.88,26.71 1.60,43.44"/>
    </edge>
    <edge id=":n0_62" function="internal">
        <lane id=":n0_62_0" index="0" speed="13.46" length="56.94" shape="38.14,20.86 22.15,15.42 10.73,17.37 3.88,26.71 1.60,43.44"/>
    </edge>
    <edge id=":n0_63" function="internal">
        <lane id=":n0_63_0" index="0" speed="13.46" length="56.94" shape="38.14,20.86 22.15,15.42 10.73,17.37 3.88,26.71 1.60,43.44"/>
    </edge>
    <edge id=":n0_64" function="internal">
        <lane id=":n0_64_0" index="0" speed="8.13" length="1.99" shape="38.14,20.86 36.70,19.47"/>
    </edge>
    <edge id=":n0_65" function="internal">
        <lane id=":n0_65_0" index="0" speed="8.13" length="1.99" shape="38.14,20.86 36.70,19.47"/>
    </edge>
    <edge id=":n0_66" function="internal">
        <lane id=":n0_66_0" index="0" speed="3.65" length="1.27" shape="38.14,20.86 37.51,19.75"/>
    </edge>
    <edge id=":n0_112" function="internal">
        <lane id=":n0_112_0" index="0" speed="8.13" length="25.08" shape="36.70,19.47 32.98,15.87 29.05,8.31 27.91,1.42 31.11,-1.60"/>
    </edge>
    <edge id=":n0_113" function="internal">
        <lane id=":n0_113_0" index="0" speed="8.13" length="25.08" shape="36.70,19.47 32.98,15.87 29.05,8.31 27.91,1.42 31.11,-1.60"/>
    </edge>
    <edge id=":n0_114" function="internal">
        <lane id=":n0_114_0" index="0" speed="3.65" length="3.40" shape="37.51,19.75 37.42,19.61 37.42,18.71 38.14,18.17 39.57,18.00"/>
    </edge>
    <edge id=":n0_67" function="internal">
        <lane id=":n0_67_0" index="0" speed="7.14" length="20.49" shape="31.11,4.80 27.69,5.45 28.19,7.38 32.63,10.61 41.00,15.13"/>
    </edge>
    <edge id=":n0_68" function="internal">
        <lane id=":n0_68_0" index="0" speed="9.51" length="32.80" shape="31.11,4.80 23.98,6.21 22.10,10.43 25.48,17.47 34.11,27.32"/>
    </edge>
    <edge id=":n0_69" function="internal">
        <lane id=":n0_69_0" index="0" speed="11.58" length="41.77" shape="31.11,4.80 21.89,6.79 17.59,12.77 18.19,22.73 23.70,36.67"/>
    </edge>
    <edge id=":n0_70" function="internal">
        <lane id=":n0_70_0" index="0" speed="12.50" length="45.00" shape="31.11,4.80 21.13,6.96 15.65,13.42 14.65,24.20 18.16,39.29"/>
    </edge>
    <edge id=":n0_71" function="internal">
        <lane id=":n0_71_0" index="0" speed="13.89" length="52.75" shape="31.11,4.80 19.60,7.21 11.38,14.46 6.44,26.53 4.80,43.44"/>
        <lane id=":n0_71_1" index="1" speed="13.89" length="57.87" shape="31.11,1.60 18.20,4.21 8.98,12.06 3.44,25.13 1.60,43.44"/>
    </edge>
    <edge id=":n0_73" function="internal">
        <lane id=":n0_73_0" index="0" speed="13.89" length="57.87" shape="31.11,1.60 18.20,4.21 8.98,12.06 3.44,25.13 1.60,43.44"/>
    </edge>
    <edge id=":n0_74" function="internal">
        <lane id=":n0_74_0" index="0" speed="13.89" length="57.87" shape="31.11,1.60 18.20,4.21 8.98,12.06 3.44,25.13 1.60,43.44"/>
    </edge>
    <edge id=":n0_75" function="internal">
        <lane id=":n0_75_0" index="0" speed="3.24" length="3.20" shape="31.11,1.60 31.11,-1.60"/>
    </edge>
    <edge id=":n0_76" function="internal">
        <lane id=":n0_76_0" index="0" speed="3.65" length="2.34" shape="31.11,1.60 29.91,0.80 29.51,-0.00"/>
    </edge>
    <edge id=":n0_115" function="internal">
        <lane id=":n0_115_0" index="0" speed="3.65" length="2.34" shape="29.51,-0.00 29.91,-0.80 31.11,-1.60"/>
    </edge>
    <edge id=":n0_77" function="internal">
        <lane id=":n0_77_0" index="0" speed="7.14" length="20.49" shape="31.11,4.80 27.69,5.45 28.19,7.38 32.63,10.61 41.00,15.13"/>
    </edge>
    <edge id=":n0_78" function="internal">
        <lane id=":n0_78_0" index="0" speed="9.51" length="32.80" shape="31.11,4.80 23.98,6.21 22.10,10.43 25.48,17.47 34.11,27.32"/>
    </edge>
    <edge id=":n0_79" function="internal">
        <lane id=":n0_79_0" index="0" speed="11.58" length="41.77" shape="31.11,4.80 21.89,6.79 17.59,12.77 18.19,22.73 23.70,36.67"/>
    </edge>
    <edge id=":n0_80" function="internal">
        <lane id=":n0_80_0" index="0" speed="12.94" length="48.34" shape="31.11,4.80 19.68,7.04 13.23,13.77 11.75,24.97 15.24,40.66"/>
    </edge>
    <edge id=":n0_81" function="internal">
        <lane id=":n0_81_0" index="0" speed="13.89" length="52.75" shape="31.11,4.80 19.60,7.21 11.38,14.46 6.44,26.53 4.80,43.44"/>
        <lane id=":n0_81_1" index="1" speed="13.89" length="57.87" shape="31.11,1.60 18.20,4.21 8.98,12.06 3.44,25.13 1.60,43.44"/>
    </edge>
    <edge id=":n0_83" function="internal">
        <lane id=":n0_83_0" index="0" speed="13.89" length="57.87" shape="31.11,1.60 18.20,4.21 8.98,12.06 3.44,25.13 1.60,43.44"/>
    </edge>
    <edge id=":n0_84" function="internal">
        <lane id=":n0_84_0" index="0" speed="13.89" length="57.87" shape="31.11,1.60 18.20,4.21 8.98,12.06 3.44,25.13 1.60,43.44"/>
    </edge>
    <edge id=":n0_85" function="internal">
        <lane id=":n0_85_0" index="0" speed="4.08" length="6.40" shape="31.11,1.60 31.11,-4.80"/>
    </edge>
    <edge id=":n0_86" function="internal">
        <lane id=":n0_86_0" index="0" speed="3.65" length="1.24" shape="31.11,1.60 30.08,0.91"/>
    </edge>
    <edge id=":n0_116" function="internal">
        <lane id=":n0_116_0" index="0" speed="3.65" length="3.43" shape="30.08,0.91 29.91,0.80 29.51,-0.00 29.91,-0.80 31.11,-1.60"/>
    </edge>
    <edge id=":n1_0" function="internal">
        <lane id=":n1_0_0" index="0" speed="13.89" length="50.56" shape="-4.80,231.11 -4.80,180.55"/>
    </edge>
    <edge id=":n1_1" function="internal">
        <lane id=":n1_1_0" index="0" speed="13.89" length="74.53" shape="-4.80,231.11 -2.79,214.62 3.23,198.26 13.27,182.01 27.32,165.89"/>
    </edge>
    <edge id=":n1_2" function="internal">
        <lane id=":n1_2_0" index="0" speed="13.89" length="70.64" shape="-1.60,231.11 0.79,214.30 7.98,199.56 19.95,186.89 36.71,176.28"/>
    </edge>
    <edge id=":n1_3" function="internal">
        <lane id=":n1_3_0" index="0" speed="13.89" length="55.36" shape="-1.60,231.11 0.44,215.40 6.58,204.18 16.80,197.44 31.11,195.20"/>
    </edge>
    <edge id=":n1_4" function="internal">
        <lane id=":n1_4_0" index="0" speed="13.89" length="52.75" shape="-1.60,231.11 0.44,216.80 6.58,206.58 16.80,200.44 31.11,198.40"/>
    </edge>
    <edge id=":n1_5" function="internal">
        <lane id=":n1_5_0" index="0" speed="10.03" length="36.64" shape="-1.60,231.11 2.74,226.24 12.77,224.66 23.97,225.92 31.85,229.58"/>
    </edge>
    <edge id=":n1_6" function="internal">
        <lane id=":n1_6_0" index="0" speed="8.13" length="27.08" shape="-1.60,231.11 1.42,227.91 8.31,229.05 15.87,232.98 20.86,238.14"/>
    </edge>
    <edge id=":n1_7" function="internal">
        <lane id=":n1_7_0" index="0" speed="3.24" length="3.20" shape="-1.60,231.11 1.60,231.11"/>
    </edge>
    <edge id=":n1_8" function="internal">
        <lane id=":n1_8_0" index="0" speed="3.65" length="2.34" shape="-1.60,231.11 -0.80,229.91 0.00,229.51"/>
    </edge>
    <edge id=":n1_89" function="internal">
        <lane id=":n1_89_0" index="0" speed="3.65" length="2.34" shape="0.00,229.51 0.80,229.91 1.60,231.11"/>
    </edge>
    <edge id=":n1_9" function="internal">
        <lane id=":n1_9_0" index="0" speed="13.89" length="50.56" shape="-4.80,231.11 -4.80,180.55"/>
    </edge>
    <edge id=":n1_10" function="internal">
        <lane id=":n1_10_0" index="0" speed="13.89" length="74.53" shape="-4.80,231.11 -2.79,214.62 3.23,198.26 13.27,182.01 27.32,165.89"/>
    </edge>
    <edge id=":n1_11" function="internal">
        <lane id=":n1_11_0" index="0" speed="13.89" length="70.64" shape="-1.60,231.11 0.79,214.30 7.98,199.56 19.95,186.89 36.71,176.28"/>
    </edge>
    <edge id=":n1_12" function="internal">
        <lane id=":n1_12_0" index="0" speed="13.89" length="52.75" shape="-1.60,231.11 0.44,216.80 6.58,206.58 16.80,200.44 31.11,198.40"/>
    </edge>
    <edge id=":n1_13" function="internal">
        <lane id=":n1_13_0" index="0" speed="13.89" length="49.83" shape="-1.60,231.11 0.44,216.80 6.58,206.58 16.80,200.44 28.22,198.81"/>
    </edge>
    <edge id=":n1_14" function="internal">
        <lane id=":n1_14_0" index="0" speed="10.03" length="1.48" shape="-1.60,231.11 -0.62,230.01"/>
    </edge>
    <edge id=":n1_15" function="internal">
        <lane id=":n1_15_0" index="0" speed="8.13" length="1.44" shape="-1.60,231.11 -0.61,230.06"/>
    </edge>
    <edge id=":n1_16" function="internal">
        <lane id=":n1_16_0" index="0" speed="4.08" length="6.40" shape="-1.60,231.11 4.80,231.11"/>
    </edge>
    <edge id=":n1_17" function="internal">
        <lane id=":n1_17_0" index="0" speed="3.65" length="1.44" shape="-1.60,231.11 -0.80,229.91"/>
    </edge>
    <edge id=":n1_90" function="internal">
        <lane id=":n1_90_0" index="0" speed="13.89" length="2.92" shape="28.22,198.81 31.11,198.40"/>
    </edge>
    <edge id=":n1_91" function="internal">
        <lane id=":n1_91_0" index="0" speed="10.03" length="35.16" shape="-0.62,230.01 2.74,226.24 12.77,224.66 23.97,225.92 31.85,229.58"/>
    </edge>
    <edge id=":n1_92" function="internal">
        <lane id=":n1_92_0" index="0" speed="8.13" length="25.63" shape="-0.61,230.06 1.42,227.91 8.31,229.05 15.87,232.98 20.86,238.14"/>
    </edge>
    <edge id=":n1_93" function="internal">
        <lane id=":n1_93_0" index="0" speed="3.65" length="3.23" shape="-0.80,229.91 0.00,229.51 0.80,229.91 1.60,231.11"/>
    </edge>
    <edge id=":n1_18" function="internal">
        <lane id=":n1_18_0" index="0" speed="7.14" length="20.49" shape="15.13,241.00 10.61,232.63 7.38,228.19 5.45,227.69 4.80,231.11"/>
    </edge>
    <edge id=":n1_19" function="internal">
        <lane id=":n1_19_0" index="0" speed="7.14" length="20.49" shape="15.13,241.00 10.61,232.63 7.38,228.19 5.45,227.69 4.80,231.11"/>
    </edge>
    <edge id=":n1_20" function="internal">
        <lane id=":n1_20_0" index="0" speed="13.89" length="63.07" shape="15.13,241.00 10.13,229.19 3.49,211.17 -2.31,192.96 -4.80,180.55"/>
        <lane id=":n1_20_1" index="1" speed="13.89" length="63.07" shape="18.00,239.57 13.05,227.98 6.52,210.45 0.83,192.73 -1.60,180.55"/>
    </edge>
    <edge id=":n1_22" function="internal">
        <lane id=":n1_22_0" index="0" speed="13.89" length="79.92" shape="18.00,239.57 10.53,218.88 9.60,199.70 15.20,182.04 27.32,165.89"/>
    </edge>
    <edge id=":n1_23" function="internal">
        <lane id=":n1_23_0" index="0" speed="13.89" length="35.78" shape="18.00,239.57 11.70,220.69 12.92,204.86"/>
    </edge>
    <edge id=":n1_24" function="internal">
        <lane id=":n1_24_0" index="0" speed="12.05" length="3.01" shape="18.00,239.57 17.73,236.57"/>
    </edge>
    <edge id=":n1_25" function="internal">
        <lane id=":n1_25_0" index="0" speed="12.05" length="3.01" shape="18.00,239.57 17.73,236.57"/>
    </edge>
    <edge id=":n1_26" function="internal">
        <lane id=":n1_26_0" index="0" speed="7.43" length="3.06" shape="18.00,239.57 17.71,236.52"/>
    </edge>
    <edge id=":n1_27" function="internal">
        <lane id=":n1_27_0" index="0" speed="3.65" length="1.44" shape="18.00,239.57 18.17,238.14"/>
    </edge>
    <edge id=":n1_94" function="internal">
        <lane id=":n1_94_0" index="0" speed="13.89" length="36.86" shape="12.92,204.86 12.96,204.32 21.77,190.47 38.14,179.14"/>
    </edge>
    <edge id=":n1_95" function="internal">
        <lane id=":n1_95_0" index="0" speed="12.05" length="42.40" shape="17.73,236.57 17.12,229.78 19.73,216.00 24.75,203.71 31.11,198.40"/>
    </edge>
    <edge id=":n1_96" function="internal">
        <lane id=":n1_96_0" index="0" speed="12.05" length="42.40" shape="17.73,236.57 17.12,229.78 19.73,216.00 24.75,203.71 31.11,198.40"/>
    </edge>
    <edge id=":n1_97" function="internal">
        <lane id=":n1_97_0" index="0" speed="7.43" length="20.59" shape="17.71,236.52 17.43,233.49 20.81,228.88 26.26,227.12 31.85,229.58"/>
    </edge>
    <edge id=":n1_98" function="internal">
        <lane id=":n1_98_0" index="0" speed="3.65" length="3.23" shape="18.17,238.14 18.71,237.42 19.61,237.42 20.86,238.14"/>
    </edge>
    <edge id=":n1_28" function="internal">
        <lane id=":n1_28_0" index="0" speed="5.98" length="14.58" shape="27.32,234.11 23.42,230.60 21.52,229.86 21.62,231.90 23.72,236.71"/>
    </edge>
    <edge id=":n1_29" function="internal">
        <lane id=":n1_29_0" index="0" speed="9.51" length="32.80" shape="27.32,234.11 17.47,225.48 10.43,222.10 6.21,223.98 4.80,231.11"/>
    </edge>
    <edge id=":n1_30" function="internal">
        <lane id=":n1_30_0" index="0" speed="9.51" length="32.80" shape="27.32,234.11 17.47,225.48 10.43,222.10 6.21,223.98 4.80,231.11"/>
    </edge>
    <edge id=":n1_31" function="internal">
        <lane id=":n1_31_0" index="0" speed="13.89" length="63.76" shape="27.32,234.11 13.27,218.72 3.23,204.66 -2.79,191.94 -4.80,180.55"/>
        <lane id=":n1_31_1" index="1" speed="13.89" length="61.26" shape="29.58,231.85 15.94,216.95 6.20,203.43 0.35,191.30 -1.60,180.55"/>
    </edge>
    <edge id=":n1_33" function="internal">
        <lane id=":n1_33_0" index="0" speed="13.89" length="72.64" shape="29.58,231.85 17.64,215.92 13.66,200.00 17.64,184.08 29.58,168.15"/>
    </edge>
    <edge id=":n1_34" function="internal">
        <lane id=":n1_34_0" index="0" speed="13.89" length="66.27" shape="29.58,231.85 18.34,216.63 16.05,202.60 22.66,190.02 38.14,179.14"/>
    </edge>
    <edge id=":n1_35" function="internal">
        <lane id=":n1_35_0" index="0" speed="10.03" length="36.64" shape="29.58,231.85 25.92,223.97 24.66,212.77 26.24,202.74 31.11,198.40"/>
    </edge>
    <edge id=":n1_36" function="internal">