<?xml version="1.0" ?>
<routes>
  <vType id="car" accel="0.8" decel="4.5" sigma="0.5" length="5.0" minGap="2.5" maxSpeed="13.89"/>
  <route id="route_0" edges="e18_0 e18_0"/>
  <route id="route_1" edges="e01_0 e1_0_0"/>
  <route id="route_2" edges="e29_0 e29_0"/>
  <route id="route_3" edges="e17_0 e2_5_0"/>
  <route id="route_4" edges="e15_0 e2_3_0"/>
  <route id="route_5" edges="e28_0 e28_0"/>
  <route id="route_6" edges="e05_0 e1_4_0"/>
  <route id="route_7" edges="e48_0 e5_3_0"/>
  <route id="route_8" edges="e02_0 e02_0"/>
  <route id="route_9" edges="e24_0 e24_0"/>
  <route id="route_10" edges="e25_0 e25_0"/>
  <route id="route_11" edges="e15_0 e2_3_0"/>
  <route id="route_12" edges="e13_0 e13_0"/>
  <route id="route_13" edges="e24_0 e3_1_0"/>
  <route id="route_14" edges="e07_0 e07_0"/>
  <route id="route_15" edges="e16_0 e16_0"/>
  <route id="route_16" edges="e47_0 e5_2_0"/>
  <route id="route_17" edges="e18_0 e2_6_0"/>
  <route id="route_18" edges="e08_0 e08_0"/>
  <route id="route_19" edges="e02_0 e1_1_0"/>
  <route id="route_20" edges="e12_0 e2_0_0"/>
  <route id="route_21" edges="e79_0 e8_1_0"/>
  <route id="route_22" edges="e57_0 e6_1_0"/>
  <route id="route_23" edges="e46_0 e46_0"/>
  <route id="route_24" edges="e69_0 e69_0"/>
  <route id="route_25" edges="e36_0 e4_2_0"/>
  <route id="route_26" edges="e17_0 e17_0"/>
  <route id="route_27" edges="e69_0 e7_2_0"/>
  <route id="route_28" edges="e04_0 e04_0"/>
  <route id="route_29" edges="e15_0 e15_0"/>
  <route id="route_30" edges="e46_0 e46_0"/>
  <route id="route_31" edges="e58_0 e58_0"/>
  <route id="route_32" edges="e17_0 e17_0"/>
  <route id="route_33" edges="e14_0 e14_0"/>
  <route id="route_34" edges="e04_0 e04_0"/>
  <route id="route_35" edges="e09_0 e09_0"/>
  <route id="route_36" edges="e15_0 e2_3_0"/>
  <route id="route_37" edges="e68_0 e68_0"/>
  <route id="route_38" edges="e03_0 e03_0"/>
  <route id="route_39" edges="e18_0 e18_0"/>
  <route id="route_40" edges="e26_0 e3_3_0"/>
  <route id="route_41" edges="e15_0 e15_0"/>
  <route id="route_42" edges="e15_0 e15_0"/>
  <route id="route_43" edges="e03_0 e1_2_0"/>
  <route id="route_44" edges="e08_0 e08_0"/>
  <route id="route_45" edges="e39_0 e39_0"/>
  <route id="route_46" edges="e56_0 e6_0_0"/>
  <route id="route_47" edges="e18_0 e2_6_0"/>
  <route id="route_48" edges="e34_0 e34_0"/>
  <route id="route_49" edges="e48_0 e48_0"/>
  <route id="route_50" edges="e05_0 e05_0"/>
  <route id="route_51" edges="e08_0 e1_7_0"/>
  <route id="route_52" edges="e48_0 e48_0"/>
  <route id="route_53" edges="e12_0 e12_0"/>
  <route id="route_54" edges="e27_0 e27_0"/>
  <route id="route_55" edges="e19_0 e19_0"/>
  <route id="route_56" edges="e38_0 e4_4_0"/>
  <route id="route_57" edges="e27_0 e27_0"/>
  <route id="route_58" edges="e28_0 e3_5_0"/>
  <route id="route_59" edges="e07_0 e1_6_0"/>
  <vehicle id="veh_0" type="car" route="route_0" depart="3174"/>
  <vehicle id="veh_1" type="car" route="route_1" depart="3507"/>
  <vehicle id="veh_2" type="car" route="route_2" depart="860"/>
  <vehicle id="veh_3" type="car" route="route_3" depart="1294"/>
  <vehicle id="veh_4" type="car" route="route_4" depart="1130"/>
  <vehicle id="veh_5" type="car" route="route_5" depart="1095"/>
  <vehicle id="veh_6" type="car" route="route_6" depart="3092"/>
  <vehicle id="veh_7" type="car" route="route_7" depart="1638"/>
  <vehicle id="veh_8" type="car" route="route_8" depart="2169"/>
  <vehicle id="veh_9" type="car" route="route_9" depart="466"/>
  <vehicle id="veh_10" type="car" route="route_10" depart="1238"/>
  <vehicle id="veh_11" type="car" route="route_11" depart="330"/>
  <vehicle id="veh_12" type="car" route="route_12" depart="1482"/>
  <vehicle id="veh_13" type="car" route="route_13" depart="2135"/>
  <vehicle id="veh_14" type="car" route="route_14" depart="3444"/>
  <vehicle id="veh_15" type="car" route="route_15" depart="3171"/>
  <vehicle id="veh_16" type="car" route="route_16" depart="2919"/>
  <vehicle id="veh_17" type="car" route="route_17" depart="130"/>
  <vehicle id="veh_18" type="car" route="route_18" depart="1685"/>
  <vehicle id="veh_19" type="car" route="route_19" depart="3380"/>
  <vehicle id="veh_20" type="car" route="route_20" depart="769"/>
  <vehicle id="veh_21" type="car" route="route_21" depart="2391"/>
  <vehicle id="veh_22" type="car" route="route_22" depart="1515"/>
  <vehicle id="veh_23" type="car" route="route_23" depart="3485"/>
  <vehicle id="veh_24" type="car" route="route_24" depart="2853"/>
  <vehicle id="veh_25" type="car" route="route_25" depart="2433"/>
  <vehicle id="veh_26" type="car" route="route_26" depart="1215"/>
  <vehicle id="veh_27" type="car" route="route_27" depart="955"/>
  <vehicle id="veh_28" type="car" route="route_28" depart="2324"/>
  <vehicle id="veh_29" type="car" route="route_29" depart="1184"/>
  <vehicle id="veh_30" type="car" route="route_30" depart="459"/>
  <vehicle id="veh_31" type="car" route="route_31" depart="3385"/>
  <vehicle id="veh_32" type="car" route="route_32" depart="21"/>
  <vehicle id="veh_33" type="car" route="route_33" depart="2300"/>
  <vehicle id="veh_34" type="car" route="route_34" depart="747"/>
  <vehicle id="veh_35" type="car" route="route_35" depart="2904"/>
  <vehicle id="veh_36" type="car" route="route_36" depart="474"/>
  <vehicle id="veh_37" type="car" route="route_37" depart="1082"/>
  <vehicle id="veh_38" type="car" route="route_38" depart="2558"/>
  <vehicle id="veh_39" type="car" route="route_39" depart="2047"/>
  <vehicle id="veh_40" type="car" route="route_40" depart="3547"/>
  <vehicle id="veh_41" type="car" route="route_41" depart="2747"/>
  <vehicle id="veh_42" type="car" route="route_42" depart="975"/>
  <vehicle id="veh_43" type="car" route="route_43" depart="1806"/>
  <vehicle id="veh_44" type="car" route="route_44" depart="189"/>
  <vehicle id="veh_45" type="car" route="route_45" depart="3005"/>
  <vehicle id="veh_46" type="car" route="route_46" depart="2734"/>
  <vehicle id="veh_47" type="car" route="route_47" depart="3005"/>
  <vehicle id="veh_48" type="car" route="route_48" depart="562"/>
  <vehicle id="veh_49" type="car" route="route_49" depart="1899"/>
  <vehicle id="veh_50" type="car" route="route_50" depart="1267"/>
  <vehicle id="veh_51" type="car" route="route_51" depart="2879"/>
  <vehicle id="veh_52" type="car" route="route_52" depart="1528"/>
  <vehicle id="veh_53" type="car" route="route_53" depart="3202"/>
  <vehicle id="veh_54" type="car" route="route_54" depart="3556"/>
  <vehicle id="veh_55" type="car" route="route_55" depart="646"/>
  <vehicle id="veh_56" type="car" route="route_56" depart="2068"/>
  <vehicle id="veh_57" type="car" route="route_57" depart="2888"/>
  <vehicle id="veh_58" type="car" route="route_58" depart="2214"/>
  <vehicle id="veh_59" type="car" route="route_59" depart="1297"/>
  <vehicle id="veh_60" type="car" route="route_0" depart="2435"/>
  <vehicle id="veh_61" type="car" route="route_1" depart="600"/>
  <vehicle id="veh_62" type="car" route="route_2" depart="2363"/>
  <vehicle id="veh_63" type="car" route="route_3" depart="2061"/>
  <vehicle id="veh_64" type="car" route="route_4" depart="241"/>
  <vehicle id="veh_65" type="car" route="route_5" depart="2041"/>
  <vehicle id="veh_66" type="car" route="route_6" depart="2824"/>
  <vehicle id="veh_67" type="car" route="route_7" depart="3417"/>
  <vehicle id="veh_68" type="car" route="route_8" depart="2612"/>
  <vehicle id="veh_69" type="car" route="route_9" depart="2945"/>
  <vehicle id="veh_70" type="car" route="route_10" depart="1363"/>
  <vehicle id="veh_71" type="car" route="route_11" depart="2139"/>
  <vehicle id="veh_72" type="car" route="route_12" depart="1390"/>
  <vehicle id="veh_73" type="car" route="route_13" depart="3003"/>
  <vehicle id="veh_74" type="car" route="route_14" depart="1478"/>
  <vehicle id="veh_75" type="car" route="route_15" depart="3499"/>
  <vehicle id="veh_76" type="car" route="route_16" depart="2556"/>
  <vehicle id="veh_77" type="car" route="route_17" depart="775"/>
  <vehicle id="veh_78" type="car" route="route_18" depart="34"/>
  <vehicle id="veh_79" type="car" route="route_19" depart="2253"/>
  <vehicle id="veh_80" type="car" route="route_20" depart="3152"/>
  <vehicle id="veh_81" type="car" route="route_21" depart="1955"/>
  <vehicle id="veh_82" type="car" route="route_22" depart="1585"/>
  <vehicle id="veh_83" type="car" route="route_23" depart="3459"/>
  <vehicle id="veh_84" type="car" route="route_24" depart="3073"/>
  <vehicle id="veh_85" type="car" route="route_25" depart="1021"/>
  <vehicle id="veh_86" type="car" route="route_26" depart="3461"/>
  <vehicle id="veh_87" type="car" route="route_27" depart="2613"/>
  <vehicle id="veh_88" type="car" route="route_28" depart="1129"/>
  <vehicle id="veh_89" type="car" route="route_29" depart="1500"/>
  <vehicle id="veh_90" type="car" route="route_30" depart="702"/>
  <vehicle id="veh_91" type="car" route="route_31" depart="2449"/>
  <vehicle id="veh_92" type="car" route="route_32" depart="2777"/>
  <vehicle id="veh_93" type="car" route="route_33" depart="1579"/>
  <vehicle id="veh_94" type="car" route="route_34" depart="161"/>
  <vehicle id="veh_95" type="car" route="route_35" depart="201"/>
  <vehicle id="veh_96" type="car" route="route_36" depart="1981"/>
  <vehicle id="veh_97" type="car" route="route_37" depart="995"/>
  <vehicle id="veh_98" type="car" route="route_38" depart="2317"/>
  <vehicle id="veh_99" type="car" route="route_39" depart="815"/>
</routes>