<?xml version="1.0" ?>
<nodes>
  <node id="n0" x="200.0" y="200.0" type="traffic_light"/>
  <node id="n1" x="200.0" y="400.0" type="traffic_light"/>
  <node id="n2" x="200.0" y="600.0" type="traffic_light"/>
  <node id="n3" x="200.0" y="800.0" type="traffic_light"/>
  <node id="n4" x="400.0" y="200.0" type="traffic_light"/>
  <node id="n5" x="400.0" y="400.0" type="traffic_light"/>
  <node id="n6" x="400.0" y="600.0" type="traffic_light"/>
  <node id="n7" x="400.0" y="800.0" type="traffic_light"/>
  <node id="n8" x="600.0" y="200.0" type="traffic_light"/>
  <node id="n9" x="600.0" y="400.0" type="traffic_light"/>
</nodes>