<?xml version="1.0" ?>
<edges>
  <edge id="e0_0" from="n0" to="n1" numLanes="2" speed="13.89" length="200.0"/>
  <edge id="e1_0" from="n1" to="n0" numLanes="2" speed="13.89" length="200.0"/>
  <edge id="e2_0" from="n0" to="n2" numLanes="2" speed="13.89" length="400.0"/>
  <edge id="e3_0" from="n2" to="n0" numLanes="2" speed="13.89" length="400.0"/>
  <edge id="e4_0" from="n0" to="n3" numLanes="2" speed="13.89" length="600.0"/>
  <edge id="e5_0" from="n3" to="n0" numLanes="2" speed="13.89" length="600.0"/>
  <edge id="e6_0" from="n0" to="n4" numLanes="2" speed="13.89" length="200.0"/>
  <edge id="e7_0" from="n4" to="n0" numLanes="2" speed="13.89" length="200.0"/>
  <edge id="e8_0" from="n0" to="n5" numLanes="2" speed="13.89" length="282.842712474619"/>
  <edge id="e9_0" from="n5" to="n0" numLanes="2" speed="13.89" length="282.842712474619"/>
  <edge id="e10_0" from="n0" to="n6" numLanes="2" speed="13.89" length="447.21359549995793"/>
  <edge id="e11_0" from="n6" to="n0" numLanes="2" speed="13.89" length="447.21359549995793"/>
  <edge id="e12_0" from="n0" to="n7" numLanes="2" speed="13.89" length="632.4555320336759"/>
  <edge id="e13_0" from="n7" to="n0" numLanes="2" speed="13.89" length="632.4555320336759"/>
  <edge id="e14_0" from="n0" to="n8" numLanes="2" speed="13.89" length="400.0"/>
  <edge id="e15_0" from="n8" to="n0" numLanes="2" speed="13.89" length="400.0"/>
  <edge id="e16_0" from="n0" to="n9" numLanes="2" speed="13.89" length="447.21359549995793"/>
  <edge id="e17_0" from="n9" to="n0" numLanes="2" speed="13.89" length="447.21359549995793"/>
  <edge id="e18_0" from="n1" to="n2" numLanes="2" speed="13.89" length="200.0"/>
  <edge id="e19_0" from="n2" to="n1" numLanes="2" speed="13.89" length="200.0"/>
  <edge id="e20_0" from="n1" to="n3" numLanes="2" speed="13.89" length="400.0"/>
  <edge id="e21_0" from="n3" to="n1" numLanes="2" speed="13.89" length="400.0"/>
  <edge id="e22_0" from="n1" to="n4" numLanes="2" speed="13.89" length="282.842712474619"/>
  <edge id="e23_0" from="n4" to="n1" numLanes="2" speed="13.89" length="282.842712474619"/>
  <edge id="e24_0" from="n1" to="n5" numLanes="2" speed="13.89" length="200.0"/>
  <edge id="e25_0" from="n5" to="n1" numLanes="2" speed="13.89" length="200.0"/>
  <edge id="e26_0" from="n1" to="n6" numLanes="2" speed="13.89" length="282.842712474619"/>
  <edge id="e27_0" from="n6" to="n1" numLanes="2" speed="13.89" length="282.842712474619"/>
  <edge id="e28_0" from="n1" to="n7" numLanes="2" speed="13.89" length="447.21359549995793"/>
  <edge id="e29_0" from="n7" to="n1" numLanes="2" speed="13.89" length="447.21359549995793"/>
  <edge id="e30_0" from="n1" to="n8" numLanes="2" speed="13.89" length="447.21359549995793"/>
  <edge id="e31_0" from="n8" to="n1" numLanes="2" speed="13.89" length="447.21359549995793"/>
  <edge id="e32_0" from="n1" to="n9" numLanes="2" speed="13.89" length="400.0"/>
  <edge id="e33_0" from="n9" to="n1" numLanes="2" speed="13.89" length="400.0"/>
  <edge id="e34_0" from="n2" to="n3" numLanes="2" speed="13.89" length="200.0"/>
  <edge id="e35_0" from="n3" to="n2" numLanes="2" speed="13.89" length="200.0"/>
  <edge id="e36_0" from="n2" to="n4" numLanes="2" speed="13.89" length="447.21359549995793"/>
  <edge id="e37_0" from="n4" to="n2" numLanes="2" speed="13.89" length="447.21359549995793"/>
  <edge id="e38_0" from="n2" to="n5" numLanes="2" speed="13.89" length="282.842712474619"/>
  <edge id="e39_0" from="n5" to="n2" numLanes="2" speed="13.89" length="282.842712474619"/>
  <edge id="e40_0" from="n2" to="n6" numLanes="2" speed="13.89" length="200.0"/>
  <edge id="e41_0" from="n6" to="n2" numLanes="2" speed="13.89" length="200.0"/>
  <edge id="e42_0" from="n2" to="n7" numLanes="2" speed="13.89" length="282.842712474619"/>
  <edge id="e43_0" from="n7" to="n2" numLanes="2" speed="13.89" length="282.842712474619"/>
  <edge id="e44_0" from="n2" to="n8" numLanes="2" speed="13.89" length="565.685424949238"/>
  <edge id="e45_0" from="n8" to="n2" numLanes="2" speed="13.89" length="565.685424949238"/>
  <edge id="e46_0" from="n2" to="n9" numLanes="2" speed="13.89" length="447.21359549995793"/>
  <edge id="e47_0" from="n9" to="n2" numLanes="2" speed="13.89" length="447.21359549995793"/>
  <edge id="e48_0" from="n3" to="n4" numLanes="2" speed="13.89" length="632.4555320336759"/>
  <edge id="e49_0" from="n4" to="n3" numLanes="2" speed="13.89" length="632.4555320336759"/>
  <edge id="e50_0" from="n3" to="n5" numLanes="2" speed="13.89" length="447.21359549995793"/>
  <edge id="e51_0" from="n5" to="n3" numLanes="2" speed="13.89" length="447.21359549995793"/>
  <edge id="e52_0" from="n3" to="n6" numLanes="2" speed="13.89" length="282.842712474619"/>
  <edge id="e53_0" from="n6" to="n3" numLanes="2" speed="13.89" length="282.842712474619"/>
  <edge id="e54_0" from="n3" to="n7" numLanes="2" speed="13.89" length="200.0"/>
  <edge id="e55_0" from="n7" to="n3" numLanes="2" speed="13.89" length="200.0"/>
  <edge id="e56_0" from="n3" to="n8" numLanes="2" speed="13.89" length="721.1102550927978"/>
  <edge id="e57_0" from="n8" to="n3" numLanes="2" speed="13.89" length="721.1102550927978"/>
  <edge id="e58_0" from="n3" to="n9" numLanes="2" speed="13.89" length="565.685424949238"/>
  <edge id="e59_0" from="n9" to="n3" numLanes="2" speed="13.89" length="565.685424949238"/>
  <edge id="e60_0" from="n4" to="n5" numLanes="2" speed="13.89" length="200.0"/>
  <edge id="e61_0" from="n5" to="n4" numLanes="2" speed="13.89" length="200.0"/>
  <edge id="e62_0" from="n4" to="n6" numLanes="2" speed="13.89" length="400.0"/>
  <edge id="e63_0" from="n6" to="n4" numLanes="2" speed="13.89" length="400.0"/>
  <edge id="e64_0" from="n4" to="n7" numLanes="2" speed="13.89" length="600.0"/>
  <edge id="e65_0" from="n7" to="n4" numLanes="2" speed="13.89" length="600.0"/>
  <edge id="e66_0" from="n4" to="n8" numLanes="2" speed="13.89" length="200.0"/>
  <edge id="e67_0" from="n8" to="n4" numLanes="2" speed="13.89" length="200.0"/>
  <edge id="e68_0" from="n4" to="n9" numLanes="2" speed="13.89" length="282.842712474619"/>
  <edge id="e69_0" from="n9" to="n4" numLanes="2" speed="13.89" length="282.842712474619"/>
  <edge id="e70_0" from="n5" to="n6" numLanes="2" speed="13.89" length="200.0"/>
  <edge id="e71_0" from="n6" to="n5" numLanes="2" speed="13.89" length="200.0"/>
  <edge id="e72_0" from="n5" to="n7" numLanes="2" speed="13.89" length="400.0"/>
  <edge id="e73_0" from="n7" to="n5" numLanes="2" speed="13.89" length="400.0"/>
  <edge id="e74_0" from="n5" to="n8" numLanes="2" speed="13.89" length="282.842712474619"/>
  <edge id="e75_0" from="n8" to="n5" numLanes="2" speed="13.89" length="282.842712474619"/>
  <edge id="e76_0" from="n5" to="n9" numLanes="2" speed="13.89" length="200.0"/>
  <edge id="e77_0" from="n9" to="n5" numLanes="2" speed="13.89" length="200.0"/>
  <edge id="e78_0" from="n6" to="n7" numLanes="2" speed="13.89" length="200.0"/>
  <edge id="e79_0" from="n7" to="n6" numLanes="2" speed="13.89" length="200.0"/>
  <edge id="e80_0" from="n6" to="n8" numLanes="2" speed="13.89" length="447.21359549995793"/>
  <edge id="e81_0" from="n8" to="n6" numLanes="2" speed="13.89" length="447.21359549995793"/>
  <edge id="e82_0" from="n6" to="n9" numLanes="2" speed="13.89" length="282.842712474619"/>
  <edge id="e83_0" from="n9" to="n6" numLanes="2" speed="13.89" length="282.842712474619"/>
  <edge id="e84_0" from="n7" to="n8" numLanes="2" speed="13.89" length="632.4555320336759"/>
  <edge id="e85_0" from="n8" to="n7" numLanes="2" speed="13.89" length="632.4555320336759"/>
  <edge id="e86_0" from="n7" to="n9" numLanes="2" speed="13.89" length="447.21359549995793"/>
  <edge id="e87_0" from="n9" to="n7" numLanes="2" speed="13.89" length="447.21359549995793"/>
  <edge id="e88_0" from="n8" to="n9" numLanes="2" speed="13.89" length="200.0"/>
  <edge id="e89_0" from="n9" to="n8" numLanes="2" speed="13.89" length="200.0"/>
</edges>